Questionable use of curly braces in "v1 phase_a 0 sine(0 {vphase} {fphase} 0 0 0) rser={rphase}"
    Error: undefined symbol in: "[vphase]"
Questionable use of curly braces in "v1 phase_a 0 sine(0 (vphase) {fphase} 0 0 0) rser={rphase}"
    Error: undefined symbol in: "[fphase]"
Questionable use of curly braces in "v2 phase_b 0 sine(0 {vphase} {fphase} 0 0 120) rser={rphase}"
    Error: undefined symbol in: "[vphase]"
Questionable use of curly braces in "v2 phase_b 0 sine(0 (vphase) {fphase} 0 0 120) rser={rphase}"
    Error: undefined symbol in: "[fphase]"
Questionable use of curly braces in "v3 phase_c 0 sine(0 {vphase} {fphase} 0 0 -120) rser={rphase}"
    Error: undefined symbol in: "[vphase]"
Questionable use of curly braces in "v3 phase_c 0 sine(0 (vphase) {fphase} 0 0 -120) rser={rphase}"
    Error: undefined symbol in: "[fphase]"
Circuit: * C:\Users\HP USER\Documents\BCIT\7000\capstone\turbine\turbine.asc

Error on line 2 : v1 phase_a 0 sine(0 (vphase) (fphase) 0 0 0) rser= 0 
	 Unknown parameter "vphase"
Error on line 3 : v2 phase_b 0 sine(0 (vphase) (fphase) 0 0 120) rser= 0 
	 Unknown parameter "vphase"
Error on line 4 : v3 phase_c 0 sine(0 (vphase) (fphase) 0 0 -120) rser= 0 
	 Unknown parameter "vphase"
WARNING: Less than two connections to node PHASE_A.  This node is used by V1.
WARNING: Less than two connections to node PHASE_B.  This node is used by V2.
WARNING: Less than two connections to node PHASE_C.  This node is used by V3.
.OP point found by inspection.

Date: Tue Oct 03 15:18:47 2023
Total elapsed time: 0.082 seconds.

tnom = 27
temp = 27
method = modified trap
totiter = 2082
traniter = 2082
tranpoints = 1042
accept = 1042
rejected = 0
matrix size = 6
fillins = 0
solver = Normal
Matrix Compiler1: 74 bytes object code size  0.0/0.0/[0.0]
Matrix Compiler2: 238 bytes object code size  0.0/0.0/[0.0]

