Circuit: * C:\Users\HP USER\Downloads\buckR1.asc

Limiting rise time of source v2 to 2.5e-008
Limiting fall time of source v2 to 2.5e-008
Direct Newton iteration for .op point succeeded.

Date: Thu Sep 28 10:57:57 2023
Total elapsed time: 4.308 seconds.

tnom = 27
temp = 27
method = modified trap
totiter = 3567103
traniter = 3567097
tranpoints = 943846
accept = 707031
rejected = 236815
matrix size = 10
fillins = 3
solver = Normal
Matrix Compiler1:      38 opcodes  0.1/[0.1]/0.1
Matrix Compiler2: off  [0.1]/0.1/0.1

