Circuit: * C:\Users\HP USER\Documents\BCIT\7000\capstone\sepicboi\R1\sepicR1.asc

Limiting rise time of source v2 to 1.66667e-007
Limiting fall time of source v2 to 1.66667e-007
Direct Newton iteration for .op point succeeded.
Heightened Def Con from 0.000788667 to 0.000788667
Heightened Def Con from 0.000788667 to 0.00078867
Heightened Def Con from 0.000832 +++++++++++++++++++++++++++++to 0.000832
Heightened Def Con from 0.000832 to 0.000832003
Heightened Def Con from 0.000845333 to 0.000845333
Heightened Def Con from 0.000845333 to 0.000845334
Heightened Def Con from 0.000852 to 0.000852
Heightened Def Con from 0.000875333 +++++++++++++++++++++to 0.000875333
Heightened Def Con from 0.000875333 to 0.000875336
Heightened Def Con from 0.000878667 +++++++++++++++++++to 0.000878667
Heightened Def Con from 0.000885333 ++++++++++++++++++++++++++++++++++++++to 0.000885333
Heightened Def Con from 0.000885333 to 0.000885334
Heightened Def Con from 0.000888667 ++++++++++++++++++++++++to 0.000888667
Heightened Def Con from 0.000888667 to 0.000888667
Heightened Def Con from 0.000892 +++++++++++++++++++++to 0.000892
Heightened Def Con from 0.000895333 to 0.000895334
Heightened Def Con from 0.000898667 +++++++++++++++++++++++++to 0.000898667
Heightened Def Con from 0.000898667 to 0.000898667
Heightened Def Con from 0.000902 ++++++++++++++++++++++++to 0.000902
Heightened Def Con from 0.000902 to 0.000902003
Heightened Def Con from 0.000912 ++++++++++++++++++++++++++to 0.000912
Heightened Def Con from 0.000912 to 0.000912
Heightened Def Con from 0.000915333 +++++++++++++++++++++++++++++++++++++to 0.000915333
Heightened Def Con from 0.000915333 to 0.000915336
Heightened Def Con from 0.000922 to 0.000922003
Heightened Def Con from 0.000925333 ++++++++++++++++++to 0.000925333
Heightened Def Con from 0.000925333 to 0.000925336
Heightened Def Con from 0.000928667 to 0.000928667
Heightened Def Con from 0.000932 ++++++++++++++++++++to 0.000932
Heightened Def Con from 0.000932 to 0.000932003
Heightened Def Con from 0.000935333 ++++++++++++++++++++++++++++++++++++++++++to 0.000935333
Heightened Def Con from 0.000935333 to 0.000935334
Heightened Def Con from 0.000938667 +++++++++++++++++++++++++++to 0.000938667
Heightened Def Con from 0.000938667 to 0.000938667
Heightened Def Con from 0.000942 +++++++++++++++++++++to 0.000942
Heightened Def Con from 0.000942 to 0.000942003
Heightened Def Con from 0.000945333 to 0.000945333
Heightened Def Con from 0.000945333 to 0.000945334
Heightened Def Con from 0.000952 +++++++++++++++++++++++to 0.000952
Heightened Def Con from 0.000955333 ++++++++++++++++++++to 0.000955333
Heightened Def Con from 0.000955333 to 0.000955334
Heightened Def Con from 0.000958667 to 0.000958667
Heightened Def Con from 0.000958667 to 0.000958667
Heightened Def Con from 0.000962 ++++++++++++++++++++++to 0.000962
Heightened Def Con from 0.000962 to 0.000962
Heightened Def Con from 0.000968667 to 0.000968667
Heightened Def Con from 0.000968667 to 0.00096867
Heightened Def Con from 0.000972 +++++++++++++++++++++++++++to 0.000972
Heightened Def Con from 0.000972 +++++++++++++++++++++++++++++++++++++to 0.000972
Heightened Def Con from 0.000972 to 0.000972

Date: Tue Oct 03 13:58:33 2023
Total elapsed time: 3.554 seconds.

tnom = 27
temp = 27
method = modified trap
totiter = 1761333
traniter = 1761328
tranpoints = 472378
accept = 350507
rejected = 122442
matrix size = 12
fillins = 0
solver = Normal
Matrix Compiler1: 624 bytes object code size  0.1/0.1/[0.1]
Matrix Compiler2: off  [0.1]/0.1/0.1

