Circuit: * C:\Users\HP USER\Documents\BCIT\7000\WindChargeController-Capstone2024\LTSpice\testproj\testproj.asc

Limiting rise time of source v:x1:1 to 1.33333e-007
Limiting fall time of source v:x1:1 to 1.33333e-007
WARNING: Node X7:COM is floating.

Direct Newton iteration for .op point succeeded.
Ignoring empty pin current: Ix(x7:power)
Ignoring empty pin current: Ix(x7:power)

Date: Tue Oct 10 15:14:48 2023
Total elapsed time: 11.511 seconds.

tnom = 27
temp = 27
method = modified trap
totiter = 717794
traniter = 717759
tranpoints = 191819
accept = 146136
rejected = 45683
matrix size = 59
fillins = 26
solver = Alternate
Matrix Compiler1: 6.46 KB object code size  3.0/2.8/[1.1]
Matrix Compiler2: 5.93 KB object code size  2.0/1.6/[0.8]

