Circuit: * C:\Users\HP USER\Documents\BCIT\7000\WindChargeController-Capstone2024\LTSpice\testproj\testproj.asc

Limiting rise time of source v:x1:1 to 1.33333e-007
Limiting fall time of source v:x1:1 to 1.33333e-007
WARNING: Node X7:COM is floating.

Direct Newton iteration for .op point succeeded.
Ignoring empty pin current: Ix(m1:1)
Ignoring empty pin current: Ix(m1:2)
Ignoring empty pin current: Ix(m1:3)
Ignoring empty pin current: Ix(x7:power)
Ignoring empty pin current: Ix(m1:1)
Ignoring empty pin current: Ix(m1:2)
Ignoring empty pin current: Ix(m1:3)
Ignoring empty pin current: Ix(x7:power)
Heightened Def Con from 0.0309835 to 0.0309835

Date: Mon Nov 06 09:44:48 2023
Total elapsed time: 146.329 seconds.

tnom = 27
temp = 27
method = modified trap
totiter = 7480083
traniter = 7480051
tranpoints = 2276401
accept = 1697937
rejected = 578465
matrix size = 68
fillins = 30
solver = Alternate
Matrix Compiler1: 7.22 KB object code size  2.1/1.9/[1.4]
Matrix Compiler2: 6.79 KB object code size  1.6/2.1/[0.9]

