Circuit: * C:\Users\HP USER\Documents\BCIT\7000\WindChargeController-Capstone2024\LTSpice\testproj\testproj.asc

Limiting rise time of source v:x1:1 to 1.33333e-007
Limiting fall time of source v:x1:1 to 1.33333e-007
WARNING: Node X7:COM is floating.

Direct Newton iteration for .op point succeeded.
Ignoring empty pin current: Ix(x7:power)
Ignoring empty pin current: Ix(x7:power)
Heightened Def Con from 0.000380133 to 0.000380133
Heightened Def Con from 0.00124845 to 0.00124845

Date: Fri Oct 06 12:26:43 2023
Total elapsed time: 3.323 seconds.

tnom = 27
temp = 27
method = modified trap
totiter = 295927
traniter = 295892
tranpoints = 79113
accept = 59920
rejected = 19195
matrix size = 57
fillins = 20
solver = Alternate
Matrix Compiler1: 5.89 KB object code size  1.5/0.8/[0.6]
Matrix Compiler2: 5.73 KB object code size  0.6/0.8/[0.6]

